data_none

_audit_creation_method generated by ABACUS

_cell_length_a 4.04658
_cell_length_b 4.95603
_cell_length_c 25.4324
_cell_angle_alpha 86.2665
_cell_angle_beta 85.4144
_cell_angle_gamma 65.9052

loop_
_atom_site_label
_atom_site_fract_x
_atom_site_fract_y
_atom_site_fract_z
Al 0.446429 0.160714 0.946429
Al 0.875 0.375 0.875
Al 0.732143 0.553571 0.982143
Al 0.160714 0.767857 0.910714
Al 0.303571 0.589286 0.803571
Al 0.732143 0.803571 0.732143
Al 0.589286 0.982143 0.839286
Al 0.0178571 0.196429 0.767857
Al 0.160714 0.0178571 0.660714
Al 0.589286 0.232143 0.589286
Al 0.446429 0.410714 0.696429
Al 0.875 0.625 0.625
