data_none

_audit_creation_method generated by ABACUS

_cell_length_a 2.86137
_cell_length_b 2.86137
_cell_length_c 23.4213
_cell_angle_alpha 86.4857
_cell_angle_beta 86.4735
_cell_angle_gamma 60

loop_
_atom_site_label
_atom_site_fract_x
_atom_site_fract_y
_atom_site_fract_z
Al 0.65 0.65 0.05
Al 0.95 0.95 0.15
Al 0.25 0.25 0.25
Al 0.55 0.55 0.35
Al 0.85 0.85 0.45
