data_none

_audit_creation_method generated by ABACUS

_cell_length_a 4.04658
_cell_length_b 4.04658
_cell_length_c 4.04658
_cell_angle_alpha 90
_cell_angle_beta 89.427
_cell_angle_gamma 90

loop_
_atom_site_label
_atom_site_fract_x
_atom_site_fract_y
_atom_site_fract_z
Al 0 0 0
Al 0 0.5 0.5
Al 0.5 0 0.5
Al 0.5 0.5 0
