data_none

_audit_creation_method generated by ABACUS

_cell_length_a 2.86137
_cell_length_b 2.86137
_cell_length_c 24.2795
_cell_angle_alpha 90
_cell_angle_beta 89.9764
_cell_angle_gamma 90

loop_
_atom_site_label
_atom_site_fract_x
_atom_site_fract_y
_atom_site_fract_z
Al 1 0 0.875
Al 0.5 0.5 0.958333
Al 1 0 0.708333
Al 0.5 0.5 0.791667
Al 1 0 0.541667
Al 0.5 0.5 0.625
