data_none

_audit_creation_method generated by ABACUS

_cell_length_a 2.86137
_cell_length_b 7.00889
_cell_length_c 26.5352
_cell_angle_alpha 95.0512
_cell_angle_beta 89.9784
_cell_angle_gamma 90

loop_
_atom_site_label
_atom_site_fract_x
_atom_site_fract_y
_atom_site_fract_z
Al 0 0.671875 0.890625
Al 0 0.359375 0.953125
Al 0.5 0.015625 0.921875
Al 0.5 0.703125 0.984375
Al 0 0.296875 0.765625
Al 0 0.984375 0.828125
Al 0.5 0.640625 0.796875
Al 0.5 0.328125 0.859375
Al 0 0.921875 0.640625
Al 0 0.609375 0.703125
Al 0.5 0.265625 0.671875
Al 0.5 0.953125 0.734375
Al 0 0.546875 0.515625
Al 0 0.234375 0.578125
Al 0.5 0.890625 0.546875
Al 0.5 0.578125 0.609375
