data_none

_audit_creation_method generated by ABACUS

_cell_length_a 2.86137
_cell_length_b 8.5841
_cell_length_c 24.2795
_cell_angle_alpha 90
_cell_angle_beta 89.9764
_cell_angle_gamma 90

loop_
_atom_site_label
_atom_site_fract_x
_atom_site_fract_y
_atom_site_fract_z
Al 0.875 0.0972222 0.0972222
Al 0.875 0.541667 0.0416667
Al 0.375 0.819444 0.0694444
Al 0.375 0.263889 0.0138889
Al 0.875 0.208333 0.208333
Al 0.875 0.652778 0.152778
Al 0.375 0.930556 0.180556
Al 0.375 0.375 0.125
Al 0.875 0.319444 0.319444
Al 0.875 0.763889 0.263889
Al 0.375 0.0416667 0.291667
Al 0.375 0.486111 0.236111
Al 0.875 0.430556 0.430556
Al 0.875 0.875 0.375
Al 0.375 0.152778 0.402778
Al 0.375 0.597222 0.347222
