data_none

_audit_creation_method generated by ABACUS

_cell_length_a 2.86137
_cell_length_b 4.04658
_cell_length_c 22.8909
_cell_angle_alpha 90
_cell_angle_beta 89.975
_cell_angle_gamma 90

loop_
_atom_site_label
_atom_site_fract_x
_atom_site_fract_y
_atom_site_fract_z
Al 0.75 0 0.09375
Al 0.25 0.5 0.03125
Al 0.75 0 0.21875
Al 0.25 0.5 0.15625
Al 0.75 0 0.34375
Al 0.25 0.5 0.28125
Al 0.75 0 0.46875
Al 0.25 0.5 0.40625
